powerflow/autotest/test_Regulator_opt.glm
//Regulator Self-Test

#set include="../../core"
#include "../../core/rt/msvc_debugger.glm"

#include "assert.glm"
#set iteration_limit=1000

clock {
	timezone EST+5EDT;
	starttime '2000-01-01 00:00:00 EST';
}

module powerflow;
///////////////////////////////////////////////////////
// test 8: regulator
///////////////////////////////////////////////////////
// Three Single Phase WYE Connected 

object regulator {
	phases ABCN;
	configuration object regulator_configuration {
		connect_type WYE_WYE;
		band_center 120;
		band_width 2;
		time_delay 30;
		raise_taps 16;
		lower_taps 16;
		current_transducer_ratio  600;
		power_transducer_ratio   60;
		compensator_r_setting_A   6.0;
		compensator_x_setting_A   12.0;
		compensator_r_setting_B   6.0;
		compensator_x_setting_B   12.0;
		compensator_r_setting_C   6.0;
		compensator_x_setting_C   12.0;
		CT_phase "ABC";
		PT_phase "ABC";
		regulation 0.10;
		Control MANUAL;
		Type B;
		tap_pos_A 4;
		tap_pos_B 5;
 		tap_pos_C 9;
	};
	from object node {
		name reg_fABC;
		phases ABCN;
		voltage_A 7200 + 0j;		
		voltage_B -3600 - 6235.4j;
		voltage_C -3600 + 6235.4j;
		nominal_voltage 7200.00;
	};
	to object node {
		name reg_tABC;
		phases ABCN;
		voltage_A 7200 + 0j;		
		voltage_B -3600 - 6235.4j;
		voltage_C -3600 + 6235.4j;
		nominal_voltage 7200.00;
		object complex_assert {
			target "voltage_A";
			value 7384.62 + 0j;
			within 0.01;
		};
		object complex_assert {
			target "voltage_B";
			value -3716.13 - 6436.54j;
			within 0.01;
		};
		object complex_assert {
			target "voltage_C";
			value -3814.57+6607.05j;
			within 0.01;
		};		
	};	
};

